Circuit: * C:\Users\rb\Documents\HSRW\Teaching\EE_EEng\REPO\EE_1.08_2_EEng_WS2022\eeng0700_Photovoltaics\PV_Spice_Modelling_WORK\PVcellExt_Test.asc

.step e=200
.step e=400
.step e=600
.step e=800
.step e=1000

Date: Mon Oct 03 17:27:09 2022
Total elapsed time: 0.242 seconds.

tnom = 27
temp = 27
method = trap
totiter = 4419
traniter = 0
tranpoints = 0
accept = 0
rejected = 0
matrix size = 3
fillins = 0
solver = Normal
Matrix Compiler1:       3 opcodes  0.0/0.0/[0.0]
Matrix Compiler2:      15 opcodes  0.0/[0.0]/0.0

