Circuit: * C:\Users\rb\Documents\HSRW\Teaching\EE_EEng\REPO\EE_1.08_2_EEng_WS2022\eeng0100_Kirchhoff\Voltage_Divider_V001.asc

Direct Newton iteration for .op point succeeded.

Date: Mon Oct 10 14:45:50 2022
Total elapsed time: 0.219 seconds.

tnom = 27
temp = 27
method = trap
totiter = 3
traniter = 0
tranpoints = 0
accept = 0
rejected = 0
matrix size = 3
fillins = 0
solver = Normal
Matrix Compiler1: 86 bytes object code size
Matrix Compiler2: 163 bytes object code size
