Circuit: * C:\Users\rb\Documents\HSRW\REPO\EE_1.08_2_EEng_WS2022\eeng0520_Power\RL_Power_V001.asc

.OP point found by inspection.

Date: Wed Jan 18 22:59:32 2023
Total elapsed time: 0.040 seconds.

tnom = 27
temp = 27
method = modified trap
totiter = 2082
traniter = 2082
tranpoints = 1042
accept = 1042
rejected = 0
matrix size = 2
fillins = 0
solver = Normal
Matrix Compiler1: 54 bytes object code size  0.0/0.0/[0.0]
Matrix Compiler2: 116 bytes object code size  0.1/0.0/[0.0]

