Circuit: * C:\Users\rb\Documents\HSRW\Teaching\EE_EEng\REPO\EE_1.08_2_EEng_WS2022\eeng0600_Diodes\PV-cell_too_simple_V001.asc


Date: Thu Dec 08 14:24:25 2022
Total elapsed time: 0.118 seconds.

tnom = 27
temp = 27
method = trap
totiter = 2004
traniter = 0
tranpoints = 0
accept = 0
rejected = 0
matrix size = 2
fillins = 0
solver = Normal
Matrix Compiler1: off  [0.0]/0.0/0.0
Matrix Compiler2: 96 bytes object code size  0.0/0.0/[0.0]

