Circuit: * C:\Users\rb\Documents\HSRW\REPO\INCLASS_WS2024\EE_8115_2_EEng_WS2023\eeng0300_Capacitors\LTspice\capacitor_charge_discharge_V001.asc

.OP point found by inspection.

Date: Tue Nov 05 21:25:15 2024
Total elapsed time: 0.053 seconds.

tnom = 27
temp = 27
method = modified trap
totiter = 2848
traniter = 2848
tranpoints = 1425
accept = 1369
rejected = 56
matrix size = 3
fillins = 0
solver = Normal
Matrix Compiler1: off  [0.0]/0.0/0.0
Matrix Compiler2: 175 bytes object code size  0.0/0.0/[0.0]

