Circuit: * C:\Users\rb\Documents\HSRW\Teaching\EE_EEng\REPO\EE_1.08_2_EEng_WS2022\eeng0300_Capacitors\LTspice\INCLASS_V002.asc

.OP point found by inspection.

Date: Thu Nov 03 13:20:21 2022
Total elapsed time: 2.663 seconds.

tnom = 27
temp = 27
method = modified trap
totiter = 174348
traniter = 174348
tranpoints = 87175
accept = 83562
rejected = 3613
matrix size = 3
fillins = 0
solver = Normal
Matrix Compiler1: off  [0.0]/0.0/0.0
Matrix Compiler2: 175 bytes object code size  0.0/0.0/[0.0]

