Circuit: * C:\Users\rb\Documents\HSRW\Teaching\EE_EEng\REPO\EE_1.08_2_EEng_WS2022\eeng0300_Capacitors\LTspice\INCLASS.asc

.OP point found by inspection.

Date: Thu Nov 03 12:59:21 2022
Total elapsed time: 0.030 seconds.

tnom = 27
temp = 27
method = modified trap
totiter = 1476
traniter = 1476
tranpoints = 739
accept = 733
rejected = 6
matrix size = 3
fillins = 0
solver = Normal
Matrix Compiler1:       3 opcodes  0.0/[0.0]/0.0
Matrix Compiler2:      15 opcodes  0.0/[0.0]/0.0

