Circuit: * C:\Users\rb\Documents\HSRW\REPO\INCLASS_WS2024\EE_8115_2_EEng_WS2023\eeng0300_Capacitors\LTspice\INCLASS_V002.asc

.OP point found by inspection.

Date: Tue Nov 05 21:26:43 2024
Total elapsed time: 0.814 seconds.

tnom = 27
temp = 27
method = modified trap
totiter = 174348
traniter = 174348
tranpoints = 87175
accept = 83562
rejected = 3613
matrix size = 3
fillins = 0
solver = Normal
Matrix Compiler1: 50 bytes object code size  0.0/0.0/[0.0]
Matrix Compiler2: 175 bytes object code size  0.0/0.0/[0.0]

