Circuit: * C:\Users\rb\Documents\HSRW\REPO\INCLASS_WS2024\EE_8115_2_EEng_WS2023\eeng0300_Capacitors\LTspice\RC-lowpass_PWM_V001.asc

.OP point found by inspection.
.step duty_cycle=0
.step duty_cycle=0.2
.step duty_cycle=0.4
.step duty_cycle=0.6
.step duty_cycle=0.8
.step duty_cycle=1

Date: Wed Nov 06 13:40:36 2024
Total elapsed time: 0.483 seconds.

tnom = 27
temp = 27
method = modified trap
totiter = 20860
traniter = 20860
tranpoints = 10431
accept = 9523
rejected = 908
matrix size = 3
fillins = 0
solver = Normal
Matrix Compiler1:       3 opcodes  0.0/[0.0]/0.0
Matrix Compiler2: off  [0.0]/0.0/0.0

