Circuit: * C:\Users\rb\Documents\HSRW\Teaching\EE_EEng\REPO\EE_1.08_2_EEng_WS2022\eeng0090_Ohms_Law\LTspice\Resistor_Network_Exercises_V001.asc

Direct Newton iteration for .op point succeeded.

Date: Sun Oct 23 14:11:27 2022
Total elapsed time: 0.061 seconds.

tnom = 27
temp = 27
method = modified trap
totiter = 2091
traniter = 2088
tranpoints = 1045
accept = 1045
rejected = 0
matrix size = 10
fillins = 0
solver = Normal
Matrix Compiler1: 292 bytes object code size  0.1/0.0/[0.0]
Matrix Compiler2: 566 bytes object code size  0.1/0.0/[0.0]

